LAMMPS (2 Aug 2023 - Update 3)
Loaded 1 plugins from C:\Users\jayra\AppData\Local\LAMMPS 64-bit 2Aug2023\plugins
#  define units
units       lj

#  specify periodic boundary conditions
boundary p p p

#  define atom_style
#  full covers everything
atom_style  full

#  define simulation volume
#  If I want N = 512 atoms
#  and I want a density of rho = 0.5 atoms/lj-sigma^3
#  Then I can determine the size of a cube by
#  size = (N/rho)^(1/3)
variable side      equal 10.0793684
region      boxid block 0.0 10.0793684 0.0 10.0793684 0.0 10.0793684
create_box  1 boxid
Created orthogonal box = (0 0 0) to (10.079368 10.079368 10.079368)

#  specify initial positions of atoms
#  sc = simple cubic
#  0.5 = density in lj units
lattice     sc 0.50
Lattice spacing in x,y,z = 1.259921 1.259921 1.259921

#  place atoms of type 1 in boxid
create_atoms    1 box
Created 512 atoms

#   define mass of atom type 1
mass        1 1.0

#  specify initial velocity of atoms
#  group = all
#  reduced temperature is T = 1.0 = lj-eps/kb
#  seed for random number generator
#  distribution is gaussian (e.g. Maxwell-Boltzmann)
velocity    all create 1.0 87287 dist gaussian

#  specify interaction potential
#  pairwise interaction via the Lennard-Jones potential with a cut-off at 2.5 lj-sigma
pair_style  lj/cut 2.5

#  specify parameters between atoms of type 1 with an atom of type 1
#  epsilon = 1.0, sigma = 1.0, cutoff = 2.5
pair_coeff  1 1 1.0 1.0 2.5

# add long-range tail correction
pair_modify tail yes

#  specify parameters for neighbor list
#  rnbr = rcut + 0.3
neighbor    0.3 bin

#  specify thermodynamic properties to be output
#  pe = potential energy
#  ke = kinetic energy
#  etotal = pe + ke
#  temp = temperature
#  press = pressure
#  density = number density
#  output every thousand steps
#  norm = normalize by # of atoms (yes or no)
thermo_style custom step pe ke etotal temp press density

# report instantaneous thermo values every 100 steps
thermo 100

# normalize thermo properties by number of atoms (yes or no)
thermo_modify norm no

#  specify ensemble
#  fixid = 1
#  atoms = all
#  ensemble = nve or nvt
fix     1 all nve

#  define time step
timestep 0.005

# run 1000 steps in the NVE ensemble
# (this equilibrates positions)
run 1000
Generated 0 of 0 mixed pair_coeff terms from geometric mixing rule
Step         PotEng         KinEng         TotEng          Temp          Press         Density
0  -1736.2204      766.5         -969.72039      1             -2.1168568      0.5
Averages over the last 6 of 11 rows, steps 500 to 1000:
PotEng KinEng TotEng Temp Press Density
-1809.96 812.896 -997.065 1.06053 -0.282287 0.5
Loop time of 0.16868 on 1 procs for 1000 steps with 512 atoms

#  stop fix with given fixid
#  fixid = 1
unfix 1

#  specify ensemble
#  fixid = 2
#  atoms = all
#  ensemble = nvt
#  temp = temperature
#  initial temperature = 1.0
#  final temperature = 1.0
#  thermostat controller gain = 0.1 (units of time, bigger is less tight control)
fix     2 all nvt temp 1.0 1.0 0.1

# run 1000 steps in the NVT ensemble
# (this equilibrates thermostat)
run     1000
Generated 0 of 0 mixed pair_coeff terms from geometric mixing rule
Step         PotEng         KinEng         TotEng          Temp          Press         Density
1000  -1819.7291      822.24595     -997.48311      1.0727279     -0.25796399     0.5
Averages over the last 6 of 11 rows, steps 1500 to 2000:
PotEng KinEng TotEng Temp Press Density
-1822.67 757.631 -1065.04 0.98843 -0.319815 0.5
Loop time of 0.171828 on 1 procs for 1000 steps with 512 atoms

#   save configurations
#   dumpid = 1
#   all atoms
#   atomic symbol is Ar
#   save positions every 100 steps
#   filename = output.xyz
#
dump    1       all xyz 100 output.xyz
dump_modify 1 element Ar

# run 1000 more steps in the NVT ensemble
# (this is data production, from which configurations are saved)
run     2000
Generated 0 of 0 mixed pair_coeff terms from geometric mixing rule
Step         PotEng         KinEng         TotEng          Temp          Press         Density
2000  -1833.5748      760.91813     -1072.6567      0.99271771    -0.48425643     0.5
Averages over the last 11 of 21 rows, steps 3000 to 4000:
PotEng KinEng TotEng Temp Press Density
-1846.47 775.127 -1071.34 1.01126 -0.193762 0.5
Loop time of 0.359888 on 1 procs for 2000 steps with 512 atoms
